<?xml version="1.0" encoding="UTF-8"?>

<!-- generated on Thu 21 Nov 2019 08:36:07 PM CET by Eclipse SUMO netedit Version v1_3_1+0207-e5522cc340
<configuration xmlns:xsi="http://www.w3.org/2001/XMLSchema-instance" xsi:noNamespaceSchemaLocation="http://sumo.dlr.de/xsd/netconvertConfiguration.xsd">

    <input>
        <sumo-net-file value="/home/stsc/repos/crownet/vadere/Scenarios/Demos/roVer/scenarios/mf_base.net.xml"/>
    </input>

    <output>
        <output-file value="/home/stsc/repos/crownet/vadere/Scenarios/Demos/roVer/scenarios/mf_base.net.xml"/>
    </output>

    <processing>
        <geometry.max-grade.fix value="false"/>
        <offset.disable-normalization value="true"/>
        <lefthand value="false"/>
    </processing>

    <junctions>
        <no-turnarounds value="true"/>
        <junctions.corner-detail value="5"/>
        <junctions.limit-turn-speed value="5.5"/>
        <rectangular-lane-cut value="false"/>
    </junctions>

    <pedestrian>
        <walkingareas value="false"/>
    </pedestrian>

</configuration>
-->

<net version="1.3" junctionCornerDetail="5" limitTurnSpeed="5.50" xmlns:xsi="http://www.w3.org/2001/XMLSchema-instance" xsi:noNamespaceSchemaLocation="http://sumo.dlr.de/xsd/net_file.xsd">

    <location netOffset="-691444.68,-5335504.47" convBoundary="570.47,1014.04,1151.23,3081.29" origBoundary="11.548225,48.117927,11.594341,48.171410" projParameter="+proj=utm +zone=32 +ellps=WGS84 +datum=WGS84 +units=m +no_defs"/>

    <type id="highway.bridleway" priority="1" numLanes="1" speed="2.78" allow="pedestrian" oneway="1" width="2.00"/>
    <type id="highway.bus_guideway" priority="1" numLanes="1" speed="27.78" allow="bus" oneway="1"/>
    <type id="highway.cycleway" priority="1" numLanes="1" speed="8.33" allow="bicycle" oneway="0" width="1.00"/>
    <type id="highway.footway" priority="1" numLanes="1" speed="2.78" allow="pedestrian" oneway="1" width="2.00"/>
    <type id="highway.ford" priority="1" numLanes="1" speed="2.78" allow="army" oneway="0"/>
    <type id="highway.living_street" priority="2" numLanes="1" speed="2.78" disallow="tram rail_urban rail rail_electric rail_fast ship" oneway="0"/>
    <type id="highway.motorway" priority="14" numLanes="2" speed="39.44" allow="private emergency authority army vip passenger hov taxi bus coach delivery truck trailer motorcycle evehicle custom1 custom2" oneway="1"/>
    <type id="highway.motorway_link" priority="9" numLanes="1" speed="22.22" allow="private emergency authority army vip passenger hov taxi bus coach delivery truck trailer motorcycle evehicle custom1 custom2" oneway="1"/>
    <type id="highway.path" priority="1" numLanes="1" speed="2.78" allow="pedestrian bicycle" oneway="1" width="2.00"/>
    <type id="highway.pedestrian" priority="1" numLanes="1" speed="2.78" allow="pedestrian" oneway="1" width="2.00"/>
    <type id="highway.primary" priority="12" numLanes="2" speed="27.78" disallow="tram rail_urban rail rail_electric rail_fast ship" oneway="0"/>
    <type id="highway.primary_link" priority="7" numLanes="1" speed="22.22" disallow="tram rail_urban rail rail_electric rail_fast ship" oneway="0"/>
    <type id="highway.raceway" priority="15" numLanes="2" speed="83.33" allow="vip" oneway="0"/>
    <type id="highway.residential" priority="3" numLanes="1" speed="13.89" disallow="tram rail_urban rail rail_electric rail_fast ship" oneway="0"/>
    <type id="highway.secondary" priority="11" numLanes="1" speed="27.78" disallow="tram rail_urban rail rail_electric rail_fast ship" oneway="0"/>
    <type id="highway.secondary_link" priority="6" numLanes="1" speed="22.22" disallow="tram rail_urban rail rail_electric rail_fast ship" oneway="0"/>
    <type id="highway.service" priority="1" numLanes="1" speed="5.56" allow="pedestrian delivery bicycle" oneway="0"/>
    <type id="highway.stairs" priority="1" numLanes="1" speed="1.39" allow="pedestrian" oneway="1" width="2.00"/>
    <type id="highway.step" priority="1" numLanes="1" speed="1.39" allow="pedestrian" oneway="1" width="2.00"/>
    <type id="highway.steps" priority="1" numLanes="1" speed="1.39" allow="pedestrian" oneway="1" width="2.00"/>
    <type id="highway.tertiary" priority="10" numLanes="1" speed="22.22" disallow="tram rail_urban rail rail_electric rail_fast ship" oneway="0"/>
    <type id="highway.tertiary_link" priority="5" numLanes="1" speed="22.22" disallow="tram rail_urban rail rail_electric rail_fast ship" oneway="0"/>
    <type id="highway.track" priority="1" numLanes="1" speed="5.56" disallow="tram rail_urban rail rail_electric rail_fast ship" oneway="0"/>
    <type id="highway.trunk" priority="13" numLanes="2" speed="27.78" disallow="pedestrian bicycle tram rail_urban rail rail_electric rail_fast ship" oneway="0"/>
    <type id="highway.trunk_link" priority="8" numLanes="1" speed="22.22" disallow="pedestrian bicycle tram rail_urban rail rail_electric rail_fast ship" oneway="0"/>
    <type id="highway.unclassified" priority="4" numLanes="1" speed="13.89" disallow="tram rail_urban rail rail_electric rail_fast ship" oneway="0"/>
    <type id="highway.unsurfaced" priority="1" numLanes="1" speed="8.33" disallow="tram rail_urban rail rail_electric rail_fast ship" oneway="0"/>
    <type id="railway.highspeed" priority="21" numLanes="1" speed="69.44" allow="rail_fast" oneway="1"/>
    <type id="railway.light_rail" priority="19" numLanes="1" speed="27.78" allow="rail_urban" oneway="1"/>
    <type id="railway.preserved" priority="16" numLanes="1" speed="27.78" allow="rail" oneway="1"/>
    <type id="railway.rail" priority="20" numLanes="1" speed="44.44" allow="rail" oneway="1"/>
    <type id="railway.subway" priority="18" numLanes="1" speed="27.78" allow="rail_urban" oneway="1"/>
    <type id="railway.tram" priority="17" numLanes="1" speed="13.89" allow="tram" oneway="1"/>

    <edge id=":1078797621_0" function="internal">
        <lane id=":1078797621_0_0" index="0" disallow="tram rail_urban rail rail_electric rail_fast ship" speed="4.38" length="1.08" shape="806.62,2047.75 806.61,2048.06 806.56,2048.28 806.45,2048.48 806.26,2048.72"/>
    </edge>
    <edge id=":1305971768_0" function="internal">
        <lane id=":1305971768_0_0" index="0" allow="tram" speed="13.89" length="0.28" shape="814.04,3038.43 814.02,3038.71"/>
    </edge>
    <edge id=":1334594113_0" function="internal">
        <lane id=":1334594113_0_0" index="0" allow="tram" speed="13.89" length="0.29" shape="811.08,3038.46 811.12,3038.18"/>
    </edge>
    <edge id=":1452950503_0" function="internal">
        <lane id=":1452950503_0_0" index="0" disallow="tram rail_urban rail rail_electric rail_fast ship" speed="13.89" length="0.30" shape="820.15,1792.40 820.06,1792.11"/>
        <lane id=":1452950503_0_1" index="1" disallow="tram rail_urban rail rail_electric rail_fast ship" speed="13.89" length="0.30" shape="823.21,1791.48 823.13,1791.20"/>
        <lane id=":1452950503_0_2" index="2" disallow="tram rail_urban rail rail_electric rail_fast ship" speed="13.89" length="0.30" shape="826.28,1790.56 826.19,1790.28"/>
    </edge>
    <edge id=":1644583589_0" function="internal">
        <lane id=":1644583589_0_0" index="0" disallow="tram rail_urban rail rail_electric rail_fast ship" speed="9.72" length="9.52" shape="882.62,2081.36 881.58,2083.94 881.24,2085.84 881.27,2087.82 881.37,2090.65"/>
    </edge>
    <edge id=":1644583589_1" function="internal">
        <lane id=":1644583589_1_0" index="0" allow="pedestrian delivery bicycle" speed="5.56" length="11.15" shape="882.62,2081.36 881.11,2083.53 879.01,2084.86 876.33,2085.35 873.05,2085.01"/>
    </edge>
    <edge id=":1644583589_2" function="internal">
        <lane id=":1644583589_2_0" index="0" disallow="tram rail_urban rail rail_electric rail_fast ship" speed="13.89" length="14.44" shape="879.67,2076.33 879.45,2080.60 878.92,2083.50 878.39,2086.40 878.17,2090.67"/>
        <lane id=":1644583589_2_1" index="1" disallow="tram rail_urban rail rail_electric rail_fast ship" speed="13.89" length="14.44" shape="876.47,2076.36 876.25,2080.62 875.72,2083.53 875.19,2086.43 874.97,2090.69"/>
    </edge>
    <edge id=":1644583589_4" function="internal">
        <lane id=":1644583589_4_0" index="0" allow="pedestrian delivery bicycle" speed="6.46" length="10.35" shape="876.47,2076.36 876.28,2080.42 875.65,2083.22 874.57,2084.75 873.05,2085.01"/>
    </edge>
    <edge id=":1644583591_0" function="internal">
        <lane id=":1644583591_0_0" index="0" disallow="tram rail_urban rail rail_electric rail_fast ship" speed="13.89" length="0.29" shape="881.96,2179.46 881.96,2179.72"/>
        <lane id=":1644583591_0_1" index="1" disallow="tram rail_urban rail rail_electric rail_fast ship" speed="13.89" length="0.29" shape="878.76,2179.46 878.76,2179.76"/>
        <lane id=":1644583591_0_2" index="2" disallow="tram rail_urban rail rail_electric rail_fast ship" speed="13.89" length="0.29" shape="875.56,2179.47 875.56,2179.80"/>
    </edge>
    <edge id=":1701847425_0" function="internal">
        <lane id=":1701847425_0_0" index="0" disallow="tram rail_urban rail rail_electric rail_fast ship" speed="13.89" length="6.52" shape="862.04,2087.51 861.91,2080.99"/>
        <lane id=":1701847425_0_1" index="1" disallow="tram rail_urban rail rail_electric rail_fast ship" speed="13.89" length="6.52" shape="865.24,2087.45 865.11,2080.93"/>
        <lane id=":1701847425_0_2" index="2" disallow="tram rail_urban rail rail_electric rail_fast ship" speed="13.89" length="6.52" shape="868.44,2087.38 868.31,2080.87"/>
    </edge>
    <edge id=":1701847425_3" function="internal">
        <lane id=":1701847425_3_0" index="0" disallow="tram rail_urban rail rail_electric rail_fast ship" speed="6.02" length="5.17" shape="869.25,2083.79 867.45,2082.96 866.15,2082.21 865.38,2081.53 865.11,2080.93"/>
    </edge>
    <edge id=":1701847425_4" function="internal">
        <lane id=":1701847425_4_0" index="0" disallow="tram rail_urban rail rail_electric rail_fast ship" speed="4.92" length="3.21" shape="869.25,2083.79 868.72,2083.31 868.44,2082.56 868.33,2081.70 868.31,2080.87"/>
    </edge>
    <edge id=":1955586_0" function="internal">
        <lane id=":1955586_0_0" index="0" disallow="tram rail_urban rail rail_electric rail_fast ship" speed="7.21" length="9.24" shape="878.02,1925.24 875.75,1926.32 874.18,1927.84 873.33,1929.80 873.18,1932.20"/>
    </edge>
    <edge id=":1955586_1" function="internal">
        <lane id=":1955586_1_0" index="0" disallow="tram rail_urban rail rail_electric rail_fast ship" speed="3.65" length="4.67" shape="878.02,1925.24 876.62,1924.89 875.98,1924.26 876.09,1923.38 876.95,1922.22"/>
    </edge>
    <edge id=":1955586_2" function="internal">
        <lane id=":1955586_2_0" index="0" disallow="tram rail_urban rail rail_electric rail_fast ship" speed="6.17" length="8.47" shape="870.83,1918.22 871.73,1920.56 873.05,1922.00 874.79,1922.55 876.95,1922.22"/>
    </edge>
    <edge id=":1955586_3" function="internal">
        <lane id=":1955586_3_0" index="0" disallow="tram rail_urban rail rail_electric rail_fast ship" speed="13.89" length="13.93" shape="870.83,1918.22 871.84,1922.31 872.44,1925.14 872.82,1928.00 873.18,1932.20"/>
        <lane id=":1955586_3_1" index="1" disallow="tram rail_urban rail rail_electric rail_fast ship" speed="13.89" length="13.93" shape="867.73,1919.00 868.70,1922.93 869.28,1925.65 869.64,1928.41 869.99,1932.45"/>
    </edge>
    <edge id=":2203963782_0" function="internal">
        <lane id=":2203963782_0_0" index="0" disallow="tram rail_urban rail rail_electric rail_fast ship" speed="8.33" length="5.02" shape="856.35,2186.58 851.34,2186.76"/>
    </edge>
    <edge id=":2203963782_1" function="internal">
        <lane id=":2203963782_1_0" index="0" disallow="tram rail_urban rail rail_electric rail_fast ship" speed="3.65" length="2.34" shape="856.35,2186.58 855.12,2185.82 854.69,2185.04"/>
    </edge>
    <edge id=":2203963782_4" function="internal">
        <lane id=":2203963782_4_0" index="0" disallow="tram rail_urban rail rail_electric rail_fast ship" speed="3.65" length="2.34" shape="854.69,2185.04 855.06,2184.22 856.23,2183.38"/>
    </edge>
    <edge id=":2203963782_2" function="internal">
        <lane id=":2203963782_2_0" index="0" disallow="tram rail_urban rail rail_electric rail_fast ship" speed="8.33" length="5.02" shape="851.22,2183.57 856.23,2183.38"/>
    </edge>
    <edge id=":2203963782_3" function="internal">
        <lane id=":2203963782_3_0" index="0" disallow="tram rail_urban rail rail_electric rail_fast ship" speed="3.65" length="2.34" shape="851.22,2183.57 852.45,2184.32 852.88,2185.10"/>
    </edge>
    <edge id=":2203963782_5" function="internal">
        <lane id=":2203963782_5_0" index="0" disallow="tram rail_urban rail rail_electric rail_fast ship" speed="3.65" length="2.34" shape="852.88,2185.10 852.51,2185.92 851.34,2186.76"/>
    </edge>
    <edge id=":2509348138_0" function="internal">
        <lane id=":2509348138_0_0" index="0" allow="pedestrian delivery bicycle" speed="5.56" length="0.10" shape="751.99,1954.27 751.97,1954.18"/>
    </edge>
    <edge id=":2509348138_1" function="internal">
        <lane id=":2509348138_1_0" index="0" allow="pedestrian delivery bicycle" speed="5.56" length="0.10" shape="755.09,1953.46 755.07,1953.37"/>
    </edge>
    <edge id=":2509348140_0" function="internal">
        <lane id=":2509348140_0_0" index="0" allow="pedestrian delivery bicycle" speed="5.56" length="0.36" shape="756.80,1970.65 756.69,1970.32"/>
    </edge>
    <edge id=":2509348140_1" function="internal">
        <lane id=":2509348140_1_0" index="0" allow="pedestrian delivery bicycle" speed="5.56" length="0.12" shape="759.76,1969.42 759.80,1969.53"/>
    </edge>
    <edge id=":2509348142_0" function="internal">
        <lane id=":2509348142_0_0" index="0" allow="pedestrian delivery bicycle" speed="4.78" length="4.27" shape="856.03,1926.89 855.64,1925.61 855.06,1924.74 854.28,1924.28 853.30,1924.24"/>
    </edge>
    <edge id=":2509348142_1" function="internal">
        <lane id=":2509348142_1_0" index="0" disallow="tram rail_urban rail rail_electric rail_fast ship" speed="13.89" length="9.40" shape="856.03,1926.89 854.24,1917.66"/>
        <lane id=":2509348142_1_1" index="1" disallow="tram rail_urban rail rail_electric rail_fast ship" speed="13.89" length="9.40" shape="859.17,1926.29 857.39,1917.05"/>
        <lane id=":2509348142_1_2" index="2" disallow="tram rail_urban rail rail_electric rail_fast ship" speed="13.89" length="9.40" shape="862.31,1925.68 860.53,1916.45"/>
    </edge>
    <edge id=":2509348142_4" function="internal">
        <lane id=":2509348142_4_0" index="0" disallow="tram rail_urban rail rail_electric rail_fast ship" speed="4.66" length="4.24" shape="852.76,1921.09 853.63,1920.75 854.17,1920.07 854.38,1919.04 854.24,1917.66"/>
    </edge>
    <edge id=":2509348142_5" function="internal">
        <lane id=":2509348142_5_0" index="0" allow="pedestrian delivery bicycle" speed="3.65" length="4.67" shape="852.76,1921.09 854.08,1921.67 854.61,1922.39 854.35,1923.25 853.30,1924.24"/>
    </edge>
    <edge id=":2518516445_0" function="internal">
        <lane id=":2518516445_0_0" index="0" allow="pedestrian delivery bicycle" speed="4.85" length="5.26" shape="816.22,1935.36 815.92,1933.90 815.22,1932.99 814.13,1932.63 812.66,1932.82"/>
    </edge>
    <edge id=":2518516445_1" function="internal">
        <lane id=":2518516445_1_0" index="0" allow="pedestrian delivery bicycle" speed="5.56" length="10.42" shape="816.22,1935.36 816.37,1932.32 817.26,1929.97 818.88,1928.31 821.24,1927.34"/>
    </edge>
    <edge id=":2518516445_2" function="internal">
        <lane id=":2518516445_2_0" index="0" allow="pedestrian delivery bicycle" speed="3.65" length="4.67" shape="816.22,1935.36 816.94,1934.11 817.72,1933.66 818.54,1934.01 819.41,1935.15"/>
    </edge>
    <edge id=":2518516445_3" function="internal">
        <lane id=":2518516445_3_0" index="0" allow="pedestrian delivery bicycle" speed="5.56" length="5.85" shape="821.95,1930.47 820.74,1931.00 819.92,1931.95 819.48,1933.34 819.41,1935.15"/>
    </edge>
    <edge id=":2518516445_4" function="internal">
        <lane id=":2518516445_4_0" index="0" allow="pedestrian delivery bicycle" speed="5.56" length="9.58" shape="821.95,1930.47 812.66,1932.82"/>
    </edge>
    <edge id=":2518516445_5" function="internal">
        <lane id=":2518516445_5_0" index="0" allow="pedestrian delivery bicycle" speed="3.65" length="4.67" shape="821.95,1930.47 820.60,1929.95 820.03,1929.26 820.25,1928.39 821.24,1927.34"/>
    </edge>
    <edge id=":2518516445_6" function="internal">
        <lane id=":2518516445_6_0" index="0" allow="pedestrian delivery bicycle" speed="5.56" length="9.72" shape="811.81,1929.73 821.24,1927.34"/>
    </edge>
    <edge id=":2518516445_7" function="internal">
        <lane id=":2518516445_7_0" index="0" allow="pedestrian delivery bicycle" speed="5.56" length="11.23" shape="811.81,1929.73 814.96,1929.34 817.28,1930.11 818.76,1932.05 819.41,1935.15"/>
    </edge>
    <edge id=":2518516445_8" function="internal">
        <lane id=":2518516445_8_0" index="0" allow="pedestrian delivery bicycle" speed="3.65" length="4.67" shape="811.81,1929.73 813.18,1930.18 813.78,1930.85 813.61,1931.73 812.66,1932.82"/>
    </edge>
    <edge id=":2579753000_0" function="internal">
        <lane id=":2579753000_0_0" index="0" disallow="tram rail_urban rail rail_electric rail_fast ship" speed="8.33" length="5.17" shape="1088.92,1980.42 1086.81,1975.70"/>
    </edge>
    <edge id=":2579753000_1" function="internal">
        <lane id=":2579753000_1_0" index="0" disallow="tram rail_urban rail rail_electric rail_fast ship" speed="3.65" length="2.34" shape="1088.92,1980.42 1089.16,1979.00 1089.73,1978.31"/>
    </edge>
    <edge id=":2579753000_4" function="internal">
        <lane id=":2579753000_4_0" index="0" disallow="tram rail_urban rail rail_electric rail_fast ship" speed="3.65" length="2.34" shape="1089.73,1978.31 1090.63,1978.35 1091.85,1979.11"/>
    </edge>
    <edge id=":2579753000_2" function="internal">
        <lane id=":2579753000_2_0" index="0" disallow="tram rail_urban rail rail_electric rail_fast ship" speed="8.33" length="5.17" shape="1089.73,1974.40 1091.85,1979.11"/>
    </edge>
    <edge id=":2579753000_3" function="internal">
        <lane id=":2579753000_3_0" index="0" disallow="tram rail_urban rail rail_electric rail_fast ship" speed="3.65" length="2.34" shape="1089.73,1974.40 1089.49,1975.82 1088.93,1976.51"/>
    </edge>
    <edge id=":2579753000_5" function="internal">
        <lane id=":2579753000_5_0" index="0" disallow="tram rail_urban rail rail_electric rail_fast ship" speed="3.65" length="2.34" shape="1088.93,1976.51 1088.03,1976.47 1086.81,1975.70"/>
    </edge>
    <edge id=":2584356330_0" function="internal">
        <lane id=":2584356330_0_0" index="0" allow="pedestrian delivery bicycle" speed="5.56" length="0.15" shape="853.11,1924.27 852.96,1924.29"/>
    </edge>
    <edge id=":2584356330_1" function="internal">
        <lane id=":2584356330_1_0" index="0" allow="pedestrian delivery bicycle" speed="3.65" length="2.34" shape="853.11,1924.27 851.80,1923.67 851.28,1922.94"/>
    </edge>
    <edge id=":2584356330_4" function="internal">
        <lane id=":2584356330_4_0" index="0" allow="pedestrian delivery bicycle" speed="3.65" length="2.34" shape="851.28,1922.94 851.55,1922.08 852.61,1921.11"/>
    </edge>
    <edge id=":2584356330_2" function="internal">
        <lane id=":2584356330_2_0" index="0" allow="pedestrian delivery bicycle" speed="5.56" length="0.15" shape="852.47,1921.13 852.61,1921.11"/>
    </edge>
    <edge id=":2584356330_3" function="internal">
        <lane id=":2584356330_3_0" index="0" allow="pedestrian delivery bicycle" speed="3.65" length="2.34" shape="852.47,1921.13 853.78,1921.74 854.29,1922.47"/>
    </edge>
    <edge id=":2584356330_5" function="internal">
        <lane id=":2584356330_5_0" index="0" allow="pedestrian delivery bicycle" speed="3.65" length="2.34" shape="854.29,1922.47 854.02,1923.32 852.96,1924.29"/>
    </edge>
    <edge id=":2584356331_0" function="internal">
        <lane id=":2584356331_0_0" index="0" allow="pedestrian delivery bicycle" speed="5.56" length="6.24" shape="851.78,1924.48 845.61,1925.43"/>
    </edge>
    <edge id=":2584356331_1" function="internal">
        <lane id=":2584356331_1_0" index="0" allow="pedestrian delivery bicycle" speed="3.65" length="2.34" shape="851.78,1924.48 850.47,1923.87 849.95,1923.14"/>
    </edge>
    <edge id=":2584356331_4" function="internal">
        <lane id=":2584356331_4_0" index="0" allow="pedestrian delivery bicycle" speed="3.65" length="2.34" shape="849.95,1923.14 850.22,1922.29 851.29,1921.31"/>
    </edge>
    <edge id=":2584356331_2" function="internal">
        <lane id=":2584356331_2_0" index="0" allow="pedestrian delivery bicycle" speed="5.56" length="6.25" shape="845.12,1922.27 851.29,1921.31"/>
    </edge>
    <edge id=":2584356331_3" function="internal">
        <lane id=":2584356331_3_0" index="0" allow="pedestrian delivery bicycle" speed="3.65" length="2.34" shape="845.12,1922.27 846.42,1922.88 846.94,1923.60"/>
    </edge>
    <edge id=":2584356331_5" function="internal">
        <lane id=":2584356331_5_0" index="0" allow="pedestrian delivery bicycle" speed="3.65" length="2.34" shape="846.94,1923.60 846.67,1924.46 845.61,1925.43"/>
    </edge>
    <edge id=":259839368_0" function="internal">
        <lane id=":259839368_0_0" index="0" disallow="tram rail_urban rail rail_electric rail_fast ship" speed="13.89" length="4.94" shape="1053.93,1992.38 1054.24,1990.97 1054.28,1989.97 1054.18,1988.95 1054.08,1987.49"/>
    </edge>
    <edge id=":260827624_0" function="internal">
        <lane id=":260827624_0_0" index="0" disallow="tram rail_urban rail rail_electric rail_fast ship" speed="3.65" length="4.67" shape="961.90,2175.86 960.54,2175.40 959.94,2174.73 960.12,2173.86 961.08,2172.77"/>
    </edge>
    <edge id=":2635397016_0" function="internal">
        <lane id=":2635397016_0_0" index="0" allow="tram" speed="13.89" length="0.10" shape="876.86,2116.09 876.86,2116.09"/>
    </edge>
    <edge id=":2709447006_0" function="internal">
        <lane id=":2709447006_0_0" index="0" disallow="tram rail_urban rail rail_electric rail_fast ship" speed="13.89" length="0.28" shape="862.61,2128.68 862.60,2128.34"/>
        <lane id=":2709447006_0_1" index="1" disallow="tram rail_urban rail rail_electric rail_fast ship" speed="13.89" length="0.28" shape="865.80,2128.59 865.80,2128.31"/>
        <lane id=":2709447006_0_2" index="2" disallow="tram rail_urban rail rail_electric rail_fast ship" speed="13.89" length="0.28" shape="869.00,2128.50 869.00,2128.28"/>
    </edge>
    <edge id=":27194086_0" function="internal">
        <lane id=":27194086_0_0" index="0" disallow="tram rail_urban rail rail_electric rail_fast ship" speed="6.07" length="9.44" shape="1053.75,1976.17 1053.30,1973.40 1052.14,1971.70 1050.28,1971.06 1047.71,1971.49"/>
    </edge>
    <edge id=":27194086_1" function="internal">
        <lane id=":27194086_1_0" index="0" disallow="tram rail_urban rail rail_electric rail_fast ship" speed="11.11" length="15.44" shape="1053.75,1976.17 1053.47,1972.36 1052.85,1968.50 1051.89,1964.72 1050.58,1961.14"/>
    </edge>
    <edge id=":27194086_2" function="internal">
        <lane id=":27194086_2_0" index="0" disallow="tram rail_urban rail rail_electric rail_fast ship" speed="9.14" length="5.39" shape="1053.75,1976.17 1053.91,1971.67 1054.10,1970.80"/>
    </edge>
    <edge id=":27194086_9" function="internal">
        <lane id=":27194086_9_0" index="0" disallow="tram rail_urban rail rail_electric rail_fast ship" speed="9.14" length="8.06" shape="1054.10,1970.80 1054.68,1968.17 1056.08,1965.68 1058.09,1964.18"/>
    </edge>
    <edge id=":27194086_3" function="internal">
        <lane id=":27194086_3_0" index="0" disallow="tram rail_urban rail rail_electric rail_fast ship" speed="8.33" length="12.43" shape="1059.35,1967.12 1047.71,1971.49"/>
    </edge>
    <edge id=":27194086_4" function="internal">
        <lane id=":27194086_4_0" index="0" disallow="tram rail_urban rail rail_electric rail_fast ship" speed="7.39" length="2.55" shape="1059.35,1967.12 1056.85,1967.59"/>
    </edge>
    <edge id=":27194086_5" function="internal">
        <lane id=":27194086_5_0" index="0" disallow="tram rail_urban rail rail_electric rail_fast ship" speed="3.65" length="1.91" shape="1059.35,1967.12 1057.93,1966.86 1057.57,1966.56"/>
    </edge>
    <edge id=":27194086_10" function="internal">
        <lane id=":27194086_10_0" index="0" disallow="tram rail_urban rail rail_electric rail_fast ship" speed="7.39" length="9.38" shape="1056.85,1967.59 1054.55,1966.75 1052.46,1964.60 1050.58,1961.14"/>
    </edge>
    <edge id=":27194086_11" function="internal">
        <lane id=":27194086_11_0" index="0" disallow="tram rail_urban rail rail_electric rail_fast ship" speed="3.65" length="2.76" shape="1057.57,1966.56 1057.25,1966.28 1057.30,1965.39 1058.09,1964.18"/>
    </edge>
    <edge id=":27194086_6" function="internal">
        <lane id=":27194086_6_0" index="0" disallow="tram rail_urban rail rail_electric rail_fast ship" speed="6.50" length="9.63" shape="1046.71,1968.45 1049.26,1967.23 1050.75,1965.61 1051.20,1963.58 1050.58,1961.14"/>
    </edge>
    <edge id=":27194086_7" function="internal">
        <lane id=":27194086_7_0" index="0" disallow="tram rail_urban rail rail_electric rail_fast ship" speed="8.33" length="12.16" shape="1046.71,1968.45 1058.09,1964.18"/>
    </edge>
    <edge id=":27194086_8" function="internal">
        <lane id=":27194086_8_0" index="0" disallow="tram rail_urban rail rail_electric rail_fast ship" speed="3.65" length="4.67" shape="1046.71,1968.45 1048.10,1968.84 1048.73,1969.47 1048.60,1970.36 1047.71,1971.49"/>
    </edge>
    <edge id=":27194092_0" function="internal">
        <lane id=":27194092_0_0" index="0" disallow="tram rail_urban rail rail_electric rail_fast ship" speed="6.54" length="9.00" shape="1023.09,1897.51 1021.81,1895.44 1020.15,1894.26 1018.12,1893.98 1015.71,1894.59"/>
    </edge>
    <edge id=":27194092_1" function="internal">
        <lane id=":27194092_1_0" index="0" disallow="tram rail_urban rail rail_electric rail_fast ship" speed="8.33" length="11.10" shape="1023.09,1897.51 1018.49,1887.40"/>
    </edge>
    <edge id=":27194229_0" function="internal">
        <lane id=":27194229_0_0" index="0" disallow="tram rail_urban rail rail_electric rail_fast ship" speed="8.33" length="5.35" shape="885.87,1923.59 884.28,1923.71 883.20,1923.83 882.13,1924.05 880.61,1924.48"/>
    </edge>
    <edge id=":27194229_1" function="internal">
        <lane id=":27194229_1_0" index="0" disallow="tram rail_urban rail rail_electric rail_fast ship" speed="3.65" length="2.34" shape="885.87,1923.59 884.61,1922.88 884.16,1922.11"/>
    </edge>
    <edge id=":27194229_4" function="internal">
        <lane id=":27194229_4_0" index="0" disallow="tram rail_urban rail rail_electric rail_fast ship" speed="3.65" length="2.34" shape="884.16,1922.11 884.50,1921.28 885.64,1920.40"/>
    </edge>
    <edge id=":27194229_2" function="internal">
        <lane id=":27194229_2_0" index="0" disallow="tram rail_urban rail rail_electric rail_fast ship" speed="8.33" length="6.04" shape="879.71,1921.41 881.43,1920.92 882.63,1920.67 883.85,1920.53 885.64,1920.40"/>
    </edge>
    <edge id=":27194229_3" function="internal">
        <lane id=":27194229_3_0" index="0" disallow="tram rail_urban rail rail_electric rail_fast ship" speed="3.65" length="2.34" shape="879.71,1921.41 881.08,1921.84 881.69,1922.49"/>
    </edge>
    <edge id=":27194229_5" function="internal">
        <lane id=":27194229_5_0" index="0" disallow="tram rail_urban rail rail_electric rail_fast ship" speed="3.65" length="2.34" shape="881.69,1922.49 881.53,1923.37 880.61,1924.48"/>
    </edge>
    <edge id=":28092165_0" function="internal">
        <lane id=":28092165_0_0" index="0" disallow="tram rail_urban rail rail_electric rail_fast ship" speed="6.69" length="7.97" shape="811.26,2032.50 809.34,2033.21 807.96,2034.42 807.13,2036.12 806.83,2038.31"/>
    </edge>
    <edge id=":28092165_1" function="internal">
        <lane id=":28092165_1_0" index="0" disallow="tram rail_urban rail rail_electric rail_fast ship" speed="13.89" length="7.28" shape="811.26,2032.50 804.15,2034.05"/>
    </edge>
    <edge id=":28092165_2" function="internal">
        <lane id=":28092165_2_0" index="0" disallow="tram rail_urban rail rail_electric rail_fast ship" speed="3.65" length="2.34" shape="811.26,2032.50 809.91,2031.97 809.35,2031.27"/>
    </edge>
    <edge id=":28092165_6" function="internal">
        <lane id=":28092165_6_0" index="0" disallow="tram rail_urban rail rail_electric rail_fast ship" speed="3.65" length="2.34" shape="809.35,2031.27 809.58,2030.41 810.58,2029.37"/>
    </edge>
    <edge id=":28092165_3" function="internal">
        <lane id=":28092165_3_0" index="0" disallow="tram rail_urban rail rail_electric rail_fast ship" speed="13.89" length="7.30" shape="803.45,2030.93 810.58,2029.37"/>
    </edge>
    <edge id=":28092165_4" function="internal">
        <lane id=":28092165_4_0" index="0" disallow="tram rail_urban rail rail_electric rail_fast ship" speed="6.10" length="2.77" shape="803.45,2030.93 804.96,2031.10 805.76,2032.06"/>
    </edge>
    <edge id=":28092165_5" function="internal">
        <lane id=":28092165_5_0" index="0" disallow="tram rail_urban rail rail_electric rail_fast ship" speed="3.65" length="2.34" shape="803.45,2030.93 804.79,2031.45 805.36,2032.14"/>
    </edge>
    <edge id=":28092165_7" function="internal">
        <lane id=":28092165_7_0" index="0" disallow="tram rail_urban rail rail_electric rail_fast ship" speed="6.10" length="6.42" shape="805.76,2032.06 806.03,2032.39 806.65,2034.79 806.83,2038.31"/>
    </edge>
    <edge id=":28092165_8" function="internal">